<?xml version="1.0" encoding="UTF-8"?>

<!-- generated on 2023-12-28 17:34:07 by Eclipse SUMO sumo Version 1.19.0
-->

<configuration xmlns:xsi="http://www.w3.org/2001/XMLSchema-instance" xsi:noNamespaceSchemaLocation="http://sumo.dlr.de/xsd/sumoConfiguration.xsd">

    <input>
        <net-file value="Avenida.net.xml"/>
        <route-files value="Avenida.rou.xml"/>
        <additional-files value="Avenida.add.xml"/>
    </input>

</configuration>
