<?xml version="1.0" encoding="UTF-8"?>

<!-- generated on 2023-12-28 17:34:07 by Eclipse SUMO netedit Version 1.19.0
-->

<additional xmlns:xsi="http://www.w3.org/2001/XMLSchema-instance" xsi:noNamespaceSchemaLocation="http://sumo.dlr.de/xsd/additional_file.xsd">
    <!-- Detectors -->
    <entryExitDetector id="SensorCoches" pos="50.00,90.00" period="10.00" file="Coches.xml" timeThreshold="0" speedThreshold="10.00">
        <detEntry lane="E0_0" pos="10.00"/>
        <detEntry lane="E0_1" pos="10.00"/>
        <detExit lane="E1_0" pos="5.00"/>
        <detExit lane="E1_1" pos="5.00"/>
        <detExit lane="-E0_0" pos="5.00"/>
        <detExit lane="-E0_1" pos="5.00"/>
        <detEntry lane="-E1_0" pos="10.00"/>
        <detEntry lane="-E1_1" pos="10.00"/>
    </entryExitDetector>
    <entryExitDetector id="SensorPersonas" pos="110.00,90.00" period="10.00" file="Personas.xml" timeThreshold="0" speedThreshold="5.00" detectPersons="walk">
        <detEntry lane="-E3_0" pos="40.17"/>
        <detExit lane="E2_0" pos="3.17"/>
        <detEntry lane="-E2_0" pos="38.66"/>
        <detExit lane="E3_0" pos="2.91"/>
    </entryExitDetector>
</additional>
