<?xml version="1.0" encoding="UTF-8"?>

<!-- generated on 2023-12-28 17:34:07 by Eclipse SUMO netedit Version 1.19.0
<configuration xmlns:xsi="http://www.w3.org/2001/XMLSchema-instance" xsi:noNamespaceSchemaLocation="http://sumo.dlr.de/xsd/neteditConfiguration.xsd">

    <input>
        <sumocfg-file value="C:\Users\User\Master\1er Cuatri\Inteligencia Artificial\Trabajo IA\Sumo y Netedit\Avenida\Avenida.sumocfg"/>
        <additional-files value="C:\Users\User\Master\1er Cuatri\Inteligencia Artificial\Trabajo IA\Sumo y Netedit\Avenida\Avenida.add.xml"/>
        <route-files value="C:\Users\User\Master\1er Cuatri\Inteligencia Artificial\Trabajo IA\Sumo y Netedit\Avenida\Avenida.rou.xml"/>
        <sumo-net-file value="C:\Users\User\Master\1er Cuatri\Inteligencia Artificial\Trabajo IA\Sumo y Netedit\Avenida\Avenida.net.xml"/>
    </input>

    <output>
        <output-file value="C:\Users\User\Master\1er Cuatri\Inteligencia Artificial\Trabajo IA\Sumo y Netedit\Avenida\Avenida.net.xml"/>
    </output>

    <processing>
        <geometry.min-radius.fix.railways value="false"/>
        <geometry.max-grade.fix value="false"/>
        <offset.disable-normalization value="true"/>
        <lefthand value="0"/>
    </processing>

    <junctions>
        <no-internal-links value="false"/>
        <no-turnarounds value="true"/>
        <junctions.corner-detail value="5"/>
        <junctions.limit-turn-speed value="5.50"/>
        <rectangular-lane-cut value="0"/>
    </junctions>

    <pedestrian>
        <walkingareas value="0"/>
    </pedestrian>

    <netedit>
        <new-network value="false"/>
    </netedit>

</configuration>
-->

<net version="1.16" junctionCornerDetail="5" limitTurnSpeed="5.50" xmlns:xsi="http://www.w3.org/2001/XMLSchema-instance" xsi:noNamespaceSchemaLocation="http://sumo.dlr.de/xsd/net_file.xsd">

    <location netOffset="0.00,0.00" convBoundary="0.00,50.00,200.00,150.00" origBoundary="-10000000000.00,-10000000000.00,10000000000.00,10000000000.00" projParameter="!"/>

    <edge id=":J1_0" function="internal">
        <lane id=":J1_0_0" index="0" disallow="pedestrian" speed="5.55" length="9.40" shape="104.70,104.80 95.30,104.80"/>
        <lane id=":J1_0_1" index="1" disallow="pedestrian" speed="5.55" length="9.40" shape="104.70,101.60 95.30,101.60"/>
    </edge>
    <edge id=":J1_2" function="internal">
        <lane id=":J1_2_0" index="0" disallow="pedestrian" speed="5.55" length="9.40" shape="95.30,95.20 104.70,95.20"/>
        <lane id=":J1_2_1" index="1" disallow="pedestrian" speed="5.55" length="9.40" shape="95.30,98.40 104.70,98.40"/>
    </edge>
    <edge id=":J1_c0" function="crossing" crossingEdges="E1 -E1">
        <lane id=":J1_c0_0" index="0" allow="pedestrian" speed="2.78" length="12.80" width="9.00" shape="100.20,93.60 100.20,106.40"/>
    </edge>
    <edge id=":J1_w0" function="walkingarea">
        <lane id=":J1_w0_0" index="0" allow="pedestrian" speed="2.78" length="2.53" width="9.00" shape="96.80,107.90 100.00,107.90 103.20,107.90 104.70,106.40 95.70,106.40"/>
    </edge>
    <edge id=":J1_w1" function="walkingarea">
        <lane id=":J1_w1_0" index="0" allow="pedestrian" speed="2.78" length="2.53" width="9.00" shape="95.70,93.60 104.70,93.60 103.20,92.10 100.00,92.10 96.80,92.10"/>
    </edge>
    <edge id=":J3_w0" function="walkingarea">
        <lane id=":J3_w0_0" index="0" allow="pedestrian" speed="2.78" length="3.20" width="3.20" shape="100.00,150.00 96.80,150.00 103.20,150.00 100.00,150.00"/>
    </edge>
    <edge id=":J4_w0" function="walkingarea">
        <lane id=":J4_w0_0" index="0" allow="pedestrian" speed="2.78" length="3.20" width="3.20" shape="100.00,50.00 103.20,50.00 96.80,50.00 100.00,50.00"/>
    </edge>

    <edge id="-E0" from="J1" to="J0" priority="-1">
        <lane id="-E0_0" index="0" disallow="pedestrian" speed="5.55" length="95.30" shape="95.30,104.80 0.00,104.80"/>
        <lane id="-E0_1" index="1" disallow="pedestrian" speed="5.55" length="95.30" shape="95.30,101.60 0.00,101.60"/>
    </edge>
    <edge id="-E1" from="J2" to="J1" priority="-1">
        <lane id="-E1_0" index="0" disallow="pedestrian" speed="5.55" length="95.30" shape="200.00,104.80 104.70,104.80"/>
        <lane id="-E1_1" index="1" disallow="pedestrian" speed="5.55" length="95.30" shape="200.00,101.60 104.70,101.60"/>
    </edge>
    <edge id="-E2" from="J3" to="J1" priority="-1">
        <lane id="-E2_0" index="0" allow="pedestrian" speed="5.00" length="42.10" shape="98.40,150.00 98.40,107.90"/>
    </edge>
    <edge id="-E3" from="J4" to="J1" priority="-1">
        <lane id="-E3_0" index="0" allow="pedestrian" speed="5.00" length="42.10" shape="101.60,50.00 101.60,92.10"/>
    </edge>
    <edge id="E0" from="J0" to="J1" priority="-1">
        <lane id="E0_0" index="0" disallow="pedestrian" speed="5.55" length="95.30" shape="0.00,95.20 95.30,95.20"/>
        <lane id="E0_1" index="1" disallow="pedestrian" speed="5.55" length="95.30" shape="0.00,98.40 95.30,98.40"/>
    </edge>
    <edge id="E1" from="J1" to="J2" priority="-1">
        <lane id="E1_0" index="0" disallow="pedestrian" speed="5.55" length="95.30" shape="104.70,95.20 200.00,95.20"/>
        <lane id="E1_1" index="1" disallow="pedestrian" speed="5.55" length="95.30" shape="104.70,98.40 200.00,98.40"/>
    </edge>
    <edge id="E2" from="J1" to="J3" priority="-1">
        <lane id="E2_0" index="0" allow="pedestrian" speed="5.00" length="42.10" shape="101.60,107.90 101.60,150.00"/>
    </edge>
    <edge id="E3" from="J1" to="J4" priority="-1">
        <lane id="E3_0" index="0" allow="pedestrian" speed="5.00" length="42.10" shape="98.40,92.10 98.40,50.00"/>
    </edge>

    <tlLogic id="J1" type="static" programID="0" offset="0">
        <phase duration="77" state="GGGGr"/>
        <phase duration="3" state="yyyyr"/>
        <phase duration="10"  state="rrrrr"/>
        <phase duration="15" state="rrrrG"/>
        <phase duration="5"  state="rrrrr"/>
    </tlLogic>

    <junction id="J0" type="dead_end" x="0.00" y="100.00" incLanes="-E0_0 -E0_1" intLanes="" shape="0.00,100.00 0.00,106.40 0.00,100.00"/>
    <junction id="J1" type="traffic_light" x="100.00" y="100.00" incLanes="-E2_0 -E1_0 -E1_1 -E3_0 E0_0 E0_1 :J1_w1_0" intLanes=":J1_0_0 :J1_0_1 :J1_2_0 :J1_2_1 :J1_c0_0" shape="96.80,107.90 103.20,107.90 103.37,107.07 103.57,106.77 103.87,106.57 104.24,106.44 104.70,106.40 104.70,93.60 103.87,93.43 103.57,93.22 103.37,92.93 103.24,92.56 103.20,92.10 96.80,92.10 96.63,92.93 96.43,93.23 96.13,93.43 95.76,93.56 95.30,93.60 95.30,106.40 96.13,106.57 96.43,106.78 96.63,107.07 96.76,107.44">
        <request index="0" response="10000" foes="10000" cont="0"/>
        <request index="1" response="10000" foes="10000" cont="0"/>
        <request index="2" response="10000" foes="10000" cont="0"/>
        <request index="3" response="10000" foes="10000" cont="0"/>
        <request index="4" response="00000" foes="01111" cont="0"/>
    </junction>
    <junction id="J2" type="dead_end" x="200.00" y="100.00" incLanes="E1_0 E1_1" intLanes="" shape="200.00,100.00 200.00,93.60 200.00,100.00"/>
    <junction id="J3" type="dead_end" x="100.00" y="150.00" incLanes="E2_0" intLanes="" shape="100.00,150.00 103.20,150.00 100.00,150.00"/>
    <junction id="J4" type="dead_end" x="100.00" y="50.00" incLanes="E3_0" intLanes="" shape="100.00,50.00 96.80,50.00 100.00,50.00"/>

    <connection from="-E1" to="-E0" fromLane="0" toLane="0" via=":J1_0_0" tl="J1" linkIndex="0" dir="s" state="o"/>
    <connection from="-E1" to="-E0" fromLane="1" toLane="1" via=":J1_0_1" tl="J1" linkIndex="1" dir="s" state="o"/>
    <connection from="E0" to="E1" fromLane="0" toLane="0" via=":J1_2_0" tl="J1" linkIndex="2" dir="s" state="o"/>
    <connection from="E0" to="E1" fromLane="1" toLane="1" via=":J1_2_1" tl="J1" linkIndex="3" dir="s" state="o"/>

    <connection from=":J1_0" to="-E0" fromLane="0" toLane="0" dir="s" state="M"/>
    <connection from=":J1_0" to="-E0" fromLane="1" toLane="1" dir="s" state="M"/>
    <connection from=":J1_2" to="E1" fromLane="0" toLane="0" dir="s" state="M"/>
    <connection from=":J1_2" to="E1" fromLane="1" toLane="1" dir="s" state="M"/>

    <connection from=":J1_c0" to=":J1_w0" fromLane="0" toLane="0" dir="s" state="M"/>
    <connection from=":J1_w0" to="E2" fromLane="0" toLane="0" dir="s" state="M"/>
    <connection from="-E2" to=":J1_w0" fromLane="0" toLane="0" dir="s" state="M"/>
    <connection from=":J1_w1" to=":J1_c0" fromLane="0" toLane="0" tl="J1" linkIndex="4" dir="s" state="M"/>
    <connection from=":J1_w1" to="E3" fromLane="0" toLane="0" dir="s" state="M"/>
    <connection from="-E3" to=":J1_w1" fromLane="0" toLane="0" dir="s" state="M"/>
    <connection from=":J3_w0" to="-E2" fromLane="0" toLane="0" dir="s" state="M"/>
    <connection from="E2" to=":J3_w0" fromLane="0" toLane="0" dir="s" state="M"/>
    <connection from=":J4_w0" to="-E3" fromLane="0" toLane="0" dir="s" state="M"/>
    <connection from="E3" to=":J4_w0" fromLane="0" toLane="0" dir="s" state="M"/>
</net>
