<?xml version="1.0" encoding="UTF-8"?>

<!-- generated on 2024-01-06 17:46:07 by Eclipse SUMO netedit Version 1.19.0
-->

<routes xmlns:xsi="http://www.w3.org/2001/XMLSchema-instance" xsi:noNamespaceSchemaLocation="http://sumo.dlr.de/xsd/routes_file.xsd">
    <!-- Vehicles, persons and containers (sorted by depart) -->
    <flow id="f_0" begin="0.00" from="-E30" to="-E41" end="5000.00" probability="0.005"/>
    <flow id="f_1" begin="0.00" departLane="2" color="red" from="-E30" to="E28" via="E31 E5 -E6 E24" end="5000.00" probability="0.005"/>
    <flow id="f_10" begin="0.00" color="white" from="-E2" to="E28" via="-E1 -E29 E26 E27 E25" end="5000.00" probability="0.005"/>
    <flow id="f_11" begin="0.00" color="red" from="-E2" to="-E41" via="-E1 E37 E4 -E3 E31" end="5000.00" probability="0.005"/>
    <flow id="f_12" begin="0.00" from="-E2" to="E28" via="-E1 E37 E38 E21 E23 E24" end="5000.00" probability="0.005"/>
    <flow id="f_13" begin="0.00" color="0,128,0" from="-E2" to="E30" via="-E1 E37 E4 -E3" end="5000.00" probability="0.005"/>
    <flow id="f_14" begin="0.00" color="128,0,0" from="-E2" to="E39" via="-E1 -E29 E26 E27" end="5000.00" probability="0.005"/>
    <flow id="f_15" begin="0.00" color="white" from="-E39" to="E30" via="-E36 -E35 E4 -E3" end="5000.00" probability="0.005"/>
    <flow id="f_16" begin="0.00" color="white" from="-E39" to="-E41" via="-E36 E20 -E22 E23 E6 -E5" end="5000.00" probability="0.005"/>
    <flow id="f_17" begin="0.00" from="-E39" to="E2" via="-E27 -E26 E29 E1" end="5000.00" probability="0.005000000000000000042"/>
    <flow id="f_18" begin="0.00" color="128,0,128" from="-E39" to="E28" via="E25" end="5000.00" probability="0.005"/>
    <flow id="f_19" begin="0.00" color="179,179,179" from="-E39" to="-E41" via="-E36 -E35 E4 -E3 E31" end="5000.00" probability="0.005"/>
    <flow id="f_2" begin="0.00" color="green" from="-E30" to="E2" via="E3 -E4 -E37 E1" end="5000.00" probability="0.005"/>
    <flow id="f_20" begin="0.00" color="white" from="-E28" to="E30" via="-E25 -E36 -E35 E4 -E3" end="5000.00" probability="0.005"/>
    <flow id="f_21" begin="0.00" color="red" from="-E28" to="E2" via="-E24 -E23 -E21 -E38 -E37 E1" end="5000.00" probability="0.005"/>
    <flow id="f_22" begin="0.00" color="0,128,0" from="-E28" to="-E41" via="-E24 E6 -E5" end="5000.00" probability="0.005"/>
    <flow id="f_23" begin="0.00" color="white" from="-E28" to="E2" via="-E25 -E27 -E26 E29 E1" end="5000.00" probability="0.005"/>
    <flow id="f_24" begin="0.00" color="0,0,139" from="-E28" to="E39" via="-E25" end="5000.00" probability="0.005"/>
    <flow id="f_3" begin="0.00" color="white" from="-E30" to="E39" via="E3 -E4 E35 E36" end="5000.00" probability="0.005"/>
    <flow id="f_4" begin="0.00" departLane="2" color="white" from="-E30" to="E28" via="E3 -E4 E38 E21 E23 E24" end="5000.00" probability="0.005"/>
    <flow id="f_5" begin="0.00" departLane="1" arrivalLane="2" color="0,128,128" from="E41" to="E28" via="E5 -E6 E24" end="5000.00" probability="0.05000000000000000042"/>
    <flow id="f_6" begin="0.00" color="white" from="E41" to="E39" via="E5 -E6 -E23 E22 -E20 E36" end="5000.00" probability="0.005"/>
    <flow id="f_7" begin="0.00" color="red" from="E41" to="E39" via="-E31 E3 -E4 E35 E36" end="5000.00" probability="0.005"/>
    <flow id="f_8" begin="0.00" color="128,0,128" from="E41" to="E2" via="-E31 E3 -E4 -E37 E1" end="5000.00" probability="0.005"/>
    <flow id="f_9" begin="0.00" color="0,128,0" from="E41" to="E30" via="-E31" end="5000.00" probability="0.005"/>
    <personFlow id="pf_0" begin="0.00" departPos="70.00" end="5000.00" probability="0.005">
        <personTrip from="E5" to="-E5" arrivalPos="20.00" lines="ANY"/>
    </personFlow>
    <personFlow id="pf_1" begin="0.00" departPos="60.00" end="5000.00" probability="0.005">
        <personTrip from="-E5" to="E5" arrivalPos="20.00" lines="ANY"/>
    </personFlow>
    <personFlow id="pf_10" begin="0.00" departPos="20.00" end="5000.00" probability="0.005">
        <personTrip from="-E6" to="E24" arrivalPos="110.00" lines="ANY"/>
    </personFlow>
    <personFlow id="pf_11" begin="0.00" departPos="70.00" end="5000.00" probability="0.005">
        <personTrip from="-E6" to="E6" arrivalPos="50.00" lines="ANY"/>
    </personFlow>
    <personFlow id="pf_12" begin="0.00" departPos="20.00" end="5000.00" probability="0.005">
        <personTrip from="-E24" to="-E23" arrivalPos="60.00" lines="ANY"/>
    </personFlow>
    <personFlow id="pf_13" begin="0.00" departPos="20.00" end="5000.00" probability="0.005">
        <personTrip from="E6" to="E0" arrivalPos="80.00" lines="ANY"/>
    </personFlow>
    <personFlow id="pf_14" begin="0.00" departPos="10.00" end="5000.00" probability="0.005">
        <personTrip from="-E28" to="-E25" arrivalPos="100.00" lines="ANY"/>
    </personFlow>
    <personFlow id="pf_15" begin="0.00" departPos="30.00" end="5000.00" probability="0.005">
        <personTrip from="E24" to="E28" arrivalPos="80.00" lines="ANY"/>
    </personFlow>
    <personFlow id="pf_16" begin="0.00" departPos="90.00" end="5000.00" probability="0.005">
        <personTrip from="E24" to="E25" arrivalPos="105.00" lines="ANY"/>
    </personFlow>
    <personFlow id="pf_17" begin="0.00" departPos="20.00" end="5000.00" probability="0.005">
        <personTrip from="-E4" to="E38" arrivalPos="20.00" lines="ANY"/>
    </personFlow>
    <personFlow id="pf_18" begin="0.00" departPos="20.00" end="5000.00" probability="0.005">
        <personTrip from="-E35" to="E4" arrivalPos="60.00" lines="ANY"/>
    </personFlow>
    <personFlow id="pf_19" begin="0.00" end="5000.00" probability="0.005">
        <personTrip from="-E38" to="-E37" arrivalPos="55.00" lines="ANY"/>
    </personFlow>
    <personFlow id="pf_2" begin="0.00" departPos="30.00" end="5000.00" probability="0.005">
        <personTrip from="E5" to="-E31" arrivalPos="90.00" lines="ANY"/>
    </personFlow>
    <personFlow id="pf_20" begin="0.00" departPos="15.00" end="5000.00" probability="0.005">
        <personTrip from="E37" to="E38" lines="ANY"/>
    </personFlow>
    <personFlow id="pf_21" begin="0.00" departPos="20.00" end="5000.00" probability="0.005">
        <personTrip from="E35" to="E36" arrivalPos="60.00" lines="ANY"/>
    </personFlow>
    <personFlow id="pf_22" begin="0.00" end="5000.00" probability="0.005">
        <personTrip from="-E20" to="E7" arrivalPos="60.00" lines="ANY"/>
    </personFlow>
    <personFlow id="pf_23" begin="0.00" departPos="50.00" end="5000.00" probability="0.005">
        <personTrip from="-E36" to="E36" arrivalPos="20.00" lines="ANY"/>
    </personFlow>
    <personFlow id="pf_24" begin="0.00" departPos="20.00" end="5000.00" probability="0.005">
        <personTrip from="-E7" to="E20" lines="ANY"/>
    </personFlow>
    <personFlow id="pf_25" begin="0.00" end="5000.00" probability="0.005">
        <personTrip from="E21" to="E23" arrivalPos="60.00" lines="ANY"/>
    </personFlow>
    <personFlow id="pf_26" begin="0.00" departPos="20.00" end="5000.00" probability="0.005">
        <personTrip from="-E23" to="E22" lines="ANY"/>
    </personFlow>
    <personFlow id="pf_27" begin="0.00" departPos="20.00" end="5000.00" probability="0.005">
        <personTrip from="E23" to="-E24" arrivalPos="110.00" lines="ANY"/>
    </personFlow>
    <personFlow id="pf_28" begin="0.00" end="5000.00" probability="0.005">
        <personTrip from="-E22" to="-E21" lines="ANY"/>
    </personFlow>
    <personFlow id="pf_29" begin="0.00" departPos="20.00" end="5000.00" probability="0.005">
        <personTrip from="-E37" to="-E29" arrivalPos="60.00" lines="ANY"/>
    </personFlow>
    <personFlow id="pf_3" begin="0.00" departPos="20.00" end="5000.00" probability="0.005">
        <personTrip from="-E0" to="E6" arrivalPos="70.00" lines="ANY"/>
    </personFlow>
    <personFlow id="pf_30" begin="0.00" departPos="20.00" end="5000.00" probability="0.005">
        <personTrip from="E29" to="E1" lines="ANY"/>
    </personFlow>
    <personFlow id="pf_31" begin="0.00" end="5000.00" probability="0.005">
        <personTrip from="-E1" to="E37" arrivalPos="50.00" lines="ANY"/>
    </personFlow>
    <personFlow id="pf_32" begin="0.00" end="5000.00" probability="0.005">
        <personTrip from="-E26" to="-E29" arrivalPos="65.00" lines="ANY"/>
    </personFlow>
    <personFlow id="pf_33" begin="0.00" departPos="20.00" end="5000.00" probability="0.005">
        <personTrip from="-E29" to="-E7" arrivalPos="60.00" lines="ANY"/>
    </personFlow>
    <personFlow id="pf_34" begin="0.00" departPos="20.00" end="5000.00" probability="0.005">
        <personTrip from="E7" to="E26" lines="ANY"/>
    </personFlow>
    <personFlow id="pf_35" begin="0.00" departPos="20.00" end="5000.00" probability="0.005">
        <personTrip from="-E25" to="-E27" arrivalPos="70.00" lines="ANY"/>
    </personFlow>
    <personFlow id="pf_36" begin="0.00" departPos="20.00" end="5000.00" probability="0.005">
        <personTrip from="E36" to="E39" arrivalPos="90.00" lines="ANY"/>
    </personFlow>
    <personFlow id="pf_37" begin="0.00" departPos="20.00" end="5000.00" probability="0.005">
        <personTrip from="-E39" to="-E27" arrivalPos="60.00" lines="ANY"/>
    </personFlow>
    <personFlow id="pf_39" begin="0.00" departPos="20.00" end="5000.00" probability="0.005">
        <personTrip from="E26" to="E25" arrivalPos="105.00" lines="ANY"/>
    </personFlow>
    <personFlow id="pf_4" begin="0.00" departPos="20.00" end="5000.00" probability="0.005">
        <personTrip from="E0" to="-E4" arrivalPos="20.00" lines="ANY"/>
    </personFlow>
    <personFlow id="pf_5" begin="0.00" departPos="20.00" end="5000.00" probability="0.005">
        <personTrip from="E3" to="-E0" arrivalPos="100.00" lines="ANY"/>
    </personFlow>
    <personFlow id="pf_6" begin="0.00" departPos="30.00" end="5000.00" probability="0.005">
        <personTrip from="-E3" to="E30" arrivalPos="100.00" lines="ANY"/>
    </personFlow>
    <personFlow id="pf_7" begin="0.00" departPos="10.00" end="5000.00" probability="0.005">
        <personTrip from="-E30" to="E31" arrivalPos="110.00" lines="ANY"/>
    </personFlow>
    <personFlow id="pf_8" begin="0.00" departPos="20.00" end="5000.00" probability="0.005">
        <personTrip from="-E31" to="E3" arrivalPos="45.00" lines="ANY"/>
    </personFlow>
    <personFlow id="pf_9" begin="0.00" departPos="40.00" end="5000.00" probability="0.005">
        <personTrip from="-E3" to="E3" arrivalPos="40.00" lines="ANY"/>
    </personFlow>
</routes>
